  
       XFOIL         Version 6.99
  
 Calculated polar for: NACA 4412                                       
  
 1 1 Reynolds number fixed          Mach number fixed         
  
 xtrf =   1.000 (top)        1.000 (bottom)  
 Mach =   0.000     Re =     0.000 e 6     Ncrit =   9.000
  
   alpha    CL        CD       CDp       CM     Top_Xtr  Bot_Xtr
  ------ -------- --------- --------- -------- -------- --------
 -15.000  -1.3024   0.00000  -0.00683  -0.0919   0.0000   0.0000
 -14.750  -1.2726   0.00000  -0.00676  -0.0921   0.0000   0.0000
 -14.500  -1.2428   0.00000  -0.00669  -0.0923   0.0000   0.0000
 -14.250  -1.2129   0.00000  -0.00662  -0.0926   0.0000   0.0000
 -14.000  -1.1831   0.00000  -0.00655  -0.0928   0.0000   0.0000
 -13.750  -1.1532   0.00000  -0.00648  -0.0930   0.0000   0.0000
 -13.500  -1.1233   0.00000  -0.00641  -0.0932   0.0000   0.0000
 -13.250  -1.0933   0.00000  -0.00634  -0.0935   0.0000   0.0000
 -13.000  -1.0634   0.00000  -0.00627  -0.0937   0.0000   0.0000
 -12.750  -1.0334   0.00000  -0.00620  -0.0940   0.0000   0.0000
 -12.500  -1.0034   0.00000  -0.00613  -0.0942   0.0000   0.0000
 -12.250  -0.9734   0.00000  -0.00606  -0.0945   0.0000   0.0000
 -12.000  -0.9434   0.00000  -0.00599  -0.0947   0.0000   0.0000
 -11.750  -0.9134   0.00000  -0.00593  -0.0950   0.0000   0.0000
 -11.500  -0.8833   0.00000  -0.00586  -0.0952   0.0000   0.0000
 -11.250  -0.8532   0.00000  -0.00579  -0.0955   0.0000   0.0000
 -11.000  -0.8232   0.00000  -0.00573  -0.0958   0.0000   0.0000
 -10.750  -0.7931   0.00000  -0.00566  -0.0961   0.0000   0.0000
 -10.500  -0.7629   0.00000  -0.00560  -0.0963   0.0000   0.0000
 -10.250  -0.7328   0.00000  -0.00553  -0.0966   0.0000   0.0000
 -10.000  -0.7027   0.00000  -0.00547  -0.0969   0.0000   0.0000
  -9.750  -0.6725   0.00000  -0.00541  -0.0972   0.0000   0.0000
  -9.500  -0.6424   0.00000  -0.00535  -0.0975   0.0000   0.0000
  -9.250  -0.6122   0.00000  -0.00528  -0.0978   0.0000   0.0000
  -9.000  -0.5820   0.00000  -0.00522  -0.0981   0.0000   0.0000
  -8.750  -0.5518   0.00000  -0.00516  -0.0983   0.0000   0.0000
  -8.500  -0.5216   0.00000  -0.00511  -0.0987   0.0000   0.0000
  -8.250  -0.4914   0.00000  -0.00505  -0.0990   0.0000   0.0000
  -8.000  -0.4612   0.00000  -0.00499  -0.0993   0.0000   0.0000
  -7.750  -0.4310   0.00000  -0.00493  -0.0996   0.0000   0.0000
  -7.500  -0.4008   0.00000  -0.00488  -0.0999   0.0000   0.0000
  -7.250  -0.3705   0.00000  -0.00482  -0.1002   0.0000   0.0000
  -7.000  -0.3403   0.00000  -0.00477  -0.1005   0.0000   0.0000
  -6.750  -0.3100   0.00000  -0.00472  -0.1008   0.0000   0.0000
  -6.500  -0.2798   0.00000  -0.00467  -0.1012   0.0000   0.0000
  -6.250  -0.2495   0.00000  -0.00461  -0.1015   0.0000   0.0000
  -6.000  -0.2193   0.00000  -0.00456  -0.1018   0.0000   0.0000
  -5.750  -0.1890   0.00000  -0.00452  -0.1022   0.0000   0.0000
  -5.500  -0.1587   0.00000  -0.00447  -0.1025   0.0000   0.0000
  -5.250  -0.1285   0.00000  -0.00442  -0.1028   0.0000   0.0000
  -5.000  -0.0982   0.00000  -0.00438  -0.1032   0.0000   0.0000
  -4.750  -0.0680   0.00000  -0.00433  -0.1035   0.0000   0.0000
  -4.500  -0.0377   0.00000  -0.00429  -0.1039   0.0000   0.0000
  -4.250  -0.0074   0.00000  -0.00424  -0.1042   0.0000   0.0000
  -4.000   0.0228   0.00000  -0.00420  -0.1046   0.0000   0.0000
  -3.750   0.0531   0.00000  -0.00416  -0.1049   0.0000   0.0000
  -3.500   0.0834   0.00000  -0.00412  -0.1053   0.0000   0.0000
  -3.250   0.1136   0.00000  -0.00409  -0.1057   0.0000   0.0000
  -3.000   0.1439   0.00000  -0.00405  -0.1060   0.0000   0.0000
  -2.750   0.1741   0.00000  -0.00401  -0.1064   0.0000   0.0000
  -2.500   0.2044   0.00000  -0.00398  -0.1068   0.0000   0.0000
  -2.250   0.2346   0.00000  -0.00395  -0.1071   0.0000   0.0000
  -2.000   0.2649   0.00000  -0.00392  -0.1075   0.0000   0.0000
  -1.750   0.2951   0.00000  -0.00388  -0.1079   0.0000   0.0000
  -1.500   0.3253   0.00000  -0.00386  -0.1083   0.0000   0.0000
  -1.250   0.3555   0.00000  -0.00383  -0.1087   0.0000   0.0000
  -1.000   0.3857   0.00000  -0.00380  -0.1090   0.0000   0.0000
  -0.750   0.4159   0.00000  -0.00378  -0.1094   0.0000   0.0000
  -0.500   0.4461   0.00000  -0.00375  -0.1098   0.0000   0.0000
  -0.250   0.4763   0.00000  -0.00373  -0.1102   0.0000   0.0000
  -0.000   0.5065   0.00000  -0.00371  -0.1106   0.0000   0.0000
   0.250   0.5366   0.00000  -0.00369  -0.1110   0.0000   0.0000
   0.500   0.5668   0.00000  -0.00367  -0.1114   0.0000   0.0000
   0.750   0.5969   0.00000  -0.00365  -0.1118   0.0000   0.0000
   1.000   0.6271   0.00000  -0.00364  -0.1122   0.0000   0.0000
   1.250   0.6572   0.00000  -0.00362  -0.1126   0.0000   0.0000
   1.500   0.6873   0.00000  -0.00361  -0.1130   0.0000   0.0000
   1.750   0.7173   0.00000  -0.00360  -0.1134   0.0000   0.0000
   2.000   0.7474   0.00000  -0.00359  -0.1138   0.0000   0.0000
   2.250   0.7775   0.00000  -0.00358  -0.1142   0.0000   0.0000
   2.500   0.8075   0.00000  -0.00358  -0.1147   0.0000   0.0000
   2.750   0.8375   0.00000  -0.00357  -0.1151   0.0000   0.0000
   3.000   0.8675   0.00000  -0.00357  -0.1155   0.0000   0.0000
   3.250   0.8975   0.00000  -0.00357  -0.1159   0.0000   0.0000
   3.500   0.9275   0.00000  -0.00357  -0.1163   0.0000   0.0000
   3.750   0.9575   0.00000  -0.00357  -0.1168   0.0000   0.0000
   4.000   0.9874   0.00000  -0.00357  -0.1172   0.0000   0.0000
   4.250   1.0173   0.00000  -0.00357  -0.1176   0.0000   0.0000
   4.500   1.0472   0.00000  -0.00358  -0.1180   0.0000   0.0000
   4.750   1.0771   0.00000  -0.00359  -0.1185   0.0000   0.0000
   5.000   1.1069   0.00000  -0.00359  -0.1189   0.0000   0.0000
   5.250   1.1368   0.00000  -0.00361  -0.1193   0.0000   0.0000
   5.500   1.1666   0.00000  -0.00362  -0.1198   0.0000   0.0000
   5.750   1.1964   0.00000  -0.00363  -0.1202   0.0000   0.0000
   6.000   1.2261   0.00000  -0.00365  -0.1206   0.0000   0.0000
   6.250   1.2559   0.00000  -0.00366  -0.1211   0.0000   0.0000
   6.500   1.2856   0.00000  -0.00368  -0.1215   0.0000   0.0000
   6.750   1.3153   0.00000  -0.00370  -0.1220   0.0000   0.0000
   7.000   1.3449   0.00000  -0.00372  -0.1224   0.0000   0.0000
   7.250   1.3746   0.00000  -0.00375  -0.1229   0.0000   0.0000
   7.500   1.4042   0.00000  -0.00377  -0.1233   0.0000   0.0000
   7.750   1.4338   0.00000  -0.00380  -0.1238   0.0000   0.0000
   8.000   1.4633   0.00000  -0.00383  -0.1242   0.0000   0.0000
   8.250   1.4929   0.00000  -0.00386  -0.1247   0.0000   0.0000
   8.500   1.5224   0.00000  -0.00389  -0.1251   0.0000   0.0000
   8.750   1.5518   0.00000  -0.00392  -0.1256   0.0000   0.0000
   9.000   1.5813   0.00000  -0.00396  -0.1260   0.0000   0.0000
   9.250   1.6107   0.00000  -0.00399  -0.1265   0.0000   0.0000
   9.500   1.6401   0.00000  -0.00403  -0.1269   0.0000   0.0000
   9.750   1.6694   0.00000  -0.00407  -0.1274   0.0000   0.0000
  10.000   1.6987   0.00000  -0.00411  -0.1278   0.0000   0.0000
  10.250   1.7280   0.00000  -0.00416  -0.1283   0.0000   0.0000
  10.500   1.7573   0.00000  -0.00420  -0.1288   0.0000   0.0000
  10.750   1.7865   0.00000  -0.00425  -0.1292   0.0000   0.0000
  11.000   1.8157   0.00000  -0.00430  -0.1297   0.0000   0.0000
  11.250   1.8448   0.00000  -0.00435  -0.1301   0.0000   0.0000
  11.500   1.8740   0.00000  -0.00440  -0.1306   0.0000   0.0000
  11.750   1.9030   0.00000  -0.00445  -0.1311   0.0000   0.0000
  12.000   1.9321   0.00000  -0.00451  -0.1315   0.0000   0.0000
  12.250   1.9611   0.00000  -0.00456  -0.1320   0.0000   0.0000
  12.500   1.9901   0.00000  -0.00462  -0.1325   0.0000   0.0000
  12.750   2.0190   0.00000  -0.00468  -0.1329   0.0000   0.0000
  13.000   2.0479   0.00000  -0.00474  -0.1334   0.0000   0.0000
  13.250   2.0767   0.00000  -0.00481  -0.1339   0.0000   0.0000
  13.500   2.1056   0.00000  -0.00487  -0.1343   0.0000   0.0000
  13.750   2.1343   0.00000  -0.00494  -0.1348   0.0000   0.0000
  14.000   2.1631   0.00000  -0.00501  -0.1353   0.0000   0.0000
  14.250   2.1918   0.00000  -0.00508  -0.1357   0.0000   0.0000
  14.500   2.2204   0.00000  -0.00515  -0.1362   0.0000   0.0000
  14.750   2.2490   0.00000  -0.00522  -0.1367   0.0000   0.0000
  15.000   2.2776   0.00000  -0.00530  -0.1371   0.0000   0.0000
