  
       XFOIL         Version 6.99
  
 Calculated polar for: NACA 4412                                       
  
 1 1 Reynolds number fixed          Mach number fixed         
  
 xtrf =   1.000 (top)        1.000 (bottom)  
 Mach =   0.000     Re =     0.000 e 6     Ncrit =   9.000
  
   alpha    CL        CD       CDp       CM     Top_Xtr  Bot_Xtr
  ------ -------- --------- --------- -------- -------- --------
 -15.000  -1.2995   0.00000  -0.00238  -0.0919   0.0000   0.0000
 -14.750  -1.2698   0.00000  -0.00236  -0.0921   0.0000   0.0000
 -14.500  -1.2400   0.00000  -0.00234  -0.0923   0.0000   0.0000
 -14.250  -1.2101   0.00000  -0.00232  -0.0926   0.0000   0.0000
 -14.000  -1.1803   0.00000  -0.00230  -0.0928   0.0000   0.0000
 -13.750  -1.1505   0.00000  -0.00228  -0.0931   0.0000   0.0000
 -13.500  -1.1206   0.00000  -0.00226  -0.0933   0.0000   0.0000
 -13.250  -1.0907   0.00000  -0.00224  -0.0936   0.0000   0.0000
 -13.000  -1.0608   0.00000  -0.00222  -0.0938   0.0000   0.0000
 -12.750  -1.0308   0.00000  -0.00220  -0.0941   0.0000   0.0000
 -12.500  -1.0009   0.00000  -0.00218  -0.0943   0.0000   0.0000
 -12.250  -0.9709   0.00000  -0.00216  -0.0946   0.0000   0.0000
 -12.000  -0.9409   0.00000  -0.00215  -0.0949   0.0000   0.0000
 -11.750  -0.9109   0.00000  -0.00213  -0.0951   0.0000   0.0000
 -11.500  -0.8808   0.00000  -0.00211  -0.0954   0.0000   0.0000
 -11.250  -0.8508   0.00000  -0.00209  -0.0957   0.0000   0.0000
 -11.000  -0.8207   0.00000  -0.00207  -0.0960   0.0000   0.0000
 -10.750  -0.7906   0.00000  -0.00206  -0.0963   0.0000   0.0000
 -10.500  -0.7605   0.00000  -0.00204  -0.0965   0.0000   0.0000
 -10.250  -0.7304   0.00000  -0.00202  -0.0968   0.0000   0.0000
 -10.000  -0.7003   0.00000  -0.00200  -0.0971   0.0000   0.0000
  -9.750  -0.6702   0.00000  -0.00199  -0.0974   0.0000   0.0000
  -9.500  -0.6400   0.00000  -0.00197  -0.0977   0.0000   0.0000
  -9.250  -0.6099   0.00000  -0.00195  -0.0980   0.0000   0.0000
  -9.000  -0.5797   0.00000  -0.00194  -0.0983   0.0000   0.0000
  -8.750  -0.5495   0.00000  -0.00192  -0.0986   0.0000   0.0000
  -8.500  -0.5193   0.00000  -0.00191  -0.0989   0.0000   0.0000
  -8.250  -0.4891   0.00000  -0.00189  -0.0993   0.0000   0.0000
  -8.000  -0.4589   0.00000  -0.00188  -0.0996   0.0000   0.0000
  -7.750  -0.4287   0.00000  -0.00186  -0.0999   0.0000   0.0000
  -7.500  -0.3985   0.00000  -0.00185  -0.1002   0.0000   0.0000
  -7.250  -0.3683   0.00000  -0.00184  -0.1005   0.0000   0.0000
  -7.000  -0.3380   0.00000  -0.00182  -0.1009   0.0000   0.0000
  -6.750  -0.3078   0.00000  -0.00181  -0.1012   0.0000   0.0000
  -6.500  -0.2775   0.00000  -0.00180  -0.1015   0.0000   0.0000
  -6.250  -0.2473   0.00000  -0.00178  -0.1019   0.0000   0.0000
  -6.000  -0.2170   0.00000  -0.00177  -0.1022   0.0000   0.0000
  -5.750  -0.1868   0.00000  -0.00176  -0.1026   0.0000   0.0000
  -5.500  -0.1565   0.00000  -0.00175  -0.1029   0.0000   0.0000
  -5.250  -0.1262   0.00000  -0.00174  -0.1032   0.0000   0.0000
  -5.000  -0.0959   0.00000  -0.00172  -0.1036   0.0000   0.0000
  -4.750  -0.0657   0.00000  -0.00171  -0.1039   0.0000   0.0000
  -4.500  -0.0354   0.00000  -0.00170  -0.1043   0.0000   0.0000
  -4.250  -0.0051   0.00000  -0.00169  -0.1047   0.0000   0.0000
  -4.000   0.0251   0.00000  -0.00168  -0.1050   0.0000   0.0000
  -3.750   0.0554   0.00000  -0.00168  -0.1054   0.0000   0.0000
  -3.500   0.0857   0.00000  -0.00167  -0.1057   0.0000   0.0000
  -3.250   0.1160   0.00000  -0.00166  -0.1061   0.0000   0.0000
  -3.000   0.1462   0.00000  -0.00165  -0.1065   0.0000   0.0000
  -2.750   0.1765   0.00000  -0.00164  -0.1069   0.0000   0.0000
  -2.500   0.2067   0.00000  -0.00163  -0.1072   0.0000   0.0000
  -2.250   0.2370   0.00000  -0.00163  -0.1076   0.0000   0.0000
  -2.000   0.2673   0.00000  -0.00162  -0.1080   0.0000   0.0000
  -1.750   0.2975   0.00000  -0.00161  -0.1084   0.0000   0.0000
  -1.500   0.3277   0.00000  -0.00161  -0.1087   0.0000   0.0000
  -1.250   0.3580   0.00000  -0.00160  -0.1091   0.0000   0.0000
  -1.000   0.3882   0.00000  -0.00160  -0.1095   0.0000   0.0000
  -0.750   0.4184   0.00000  -0.00159  -0.1099   0.0000   0.0000
  -0.500   0.4486   0.00000  -0.00159  -0.1103   0.0000   0.0000
  -0.250   0.4788   0.00000  -0.00159  -0.1107   0.0000   0.0000
  -0.000   0.5090   0.00000  -0.00158  -0.1111   0.0000   0.0000
   0.250   0.5392   0.00000  -0.00158  -0.1115   0.0000   0.0000
   0.500   0.5694   0.00000  -0.00158  -0.1119   0.0000   0.0000
   0.750   0.5995   0.00000  -0.00157  -0.1123   0.0000   0.0000
   1.000   0.6297   0.00000  -0.00157  -0.1127   0.0000   0.0000
   1.250   0.6598   0.00000  -0.00157  -0.1131   0.0000   0.0000
   1.500   0.6900   0.00000  -0.00157  -0.1135   0.0000   0.0000
   1.750   0.7201   0.00000  -0.00157  -0.1139   0.0000   0.0000
   2.000   0.7502   0.00000  -0.00157  -0.1143   0.0000   0.0000
   2.250   0.7803   0.00000  -0.00157  -0.1147   0.0000   0.0000
   2.500   0.8103   0.00000  -0.00157  -0.1152   0.0000   0.0000
   2.750   0.8404   0.00000  -0.00157  -0.1156   0.0000   0.0000
   3.000   0.8704   0.00000  -0.00158  -0.1160   0.0000   0.0000
   3.250   0.9004   0.00000  -0.00158  -0.1164   0.0000   0.0000
   3.500   0.9304   0.00000  -0.00158  -0.1168   0.0000   0.0000
   3.750   0.9604   0.00000  -0.00158  -0.1173   0.0000   0.0000
   4.000   0.9904   0.00000  -0.00159  -0.1177   0.0000   0.0000
   4.250   1.0203   0.00000  -0.00159  -0.1181   0.0000   0.0000
   4.500   1.0503   0.00000  -0.00159  -0.1185   0.0000   0.0000
   4.750   1.0802   0.00000  -0.00160  -0.1190   0.0000   0.0000
   5.000   1.1101   0.00000  -0.00160  -0.1194   0.0000   0.0000
   5.250   1.1399   0.00000  -0.00161  -0.1198   0.0000   0.0000
   5.500   1.1698   0.00000  -0.00162  -0.1202   0.0000   0.0000
   5.750   1.1996   0.00000  -0.00162  -0.1207   0.0000   0.0000
   6.000   1.2294   0.00000  -0.00163  -0.1211   0.0000   0.0000
   6.250   1.2592   0.00000  -0.00164  -0.1216   0.0000   0.0000
   6.500   1.2889   0.00000  -0.00165  -0.1220   0.0000   0.0000
   6.750   1.3186   0.00000  -0.00165  -0.1224   0.0000   0.0000
   7.000   1.3483   0.00000  -0.00166  -0.1229   0.0000   0.0000
   7.250   1.3780   0.00000  -0.00167  -0.1233   0.0000   0.0000
   7.500   1.4077   0.00000  -0.00168  -0.1238   0.0000   0.0000
   7.750   1.4373   0.00000  -0.00169  -0.1242   0.0000   0.0000
   8.000   1.4669   0.00000  -0.00170  -0.1246   0.0000   0.0000
   8.250   1.4965   0.00000  -0.00172  -0.1251   0.0000   0.0000
   8.500   1.5260   0.00000  -0.00173  -0.1255   0.0000   0.0000
   8.750   1.5555   0.00000  -0.00174  -0.1260   0.0000   0.0000
   9.000   1.5850   0.00000  -0.00175  -0.1264   0.0000   0.0000
   9.250   1.6144   0.00000  -0.00176  -0.1269   0.0000   0.0000
   9.500   1.6439   0.00000  -0.00178  -0.1273   0.0000   0.0000
   9.750   1.6732   0.00000  -0.00179  -0.1278   0.0000   0.0000
  10.000   1.7026   0.00000  -0.00181  -0.1282   0.0000   0.0000
  10.250   1.7319   0.00000  -0.00182  -0.1287   0.0000   0.0000
  10.500   1.7612   0.00000  -0.00184  -0.1291   0.0000   0.0000
  10.750   1.7905   0.00000  -0.00185  -0.1296   0.0000   0.0000
  11.000   1.8197   0.00000  -0.00187  -0.1300   0.0000   0.0000
  11.250   1.8489   0.00000  -0.00188  -0.1305   0.0000   0.0000
  11.500   1.8780   0.00000  -0.00190  -0.1309   0.0000   0.0000
  11.750   1.9072   0.00000  -0.00192  -0.1314   0.0000   0.0000
  12.000   1.9362   0.00000  -0.00194  -0.1319   0.0000   0.0000
  12.250   1.9653   0.00000  -0.00196  -0.1323   0.0000   0.0000
  12.500   1.9943   0.00000  -0.00197  -0.1328   0.0000   0.0000
  12.750   2.0233   0.00000  -0.00199  -0.1332   0.0000   0.0000
  13.000   2.0522   0.00000  -0.00201  -0.1337   0.0000   0.0000
  13.250   2.0811   0.00000  -0.00203  -0.1341   0.0000   0.0000
  13.500   2.1099   0.00000  -0.00205  -0.1346   0.0000   0.0000
  13.750   2.1388   0.00000  -0.00208  -0.1351   0.0000   0.0000
  14.000   2.1675   0.00000  -0.00210  -0.1355   0.0000   0.0000
  14.250   2.1963   0.00000  -0.00212  -0.1360   0.0000   0.0000
  14.500   2.2250   0.00000  -0.00214  -0.1364   0.0000   0.0000
  14.750   2.2536   0.00000  -0.00216  -0.1369   0.0000   0.0000
  15.000   2.2822   0.00000  -0.00219  -0.1373   0.0000   0.0000
